1gz4_ligand
     RDKit          3D

 47 49  0  0  0  0  0  0  0  0999 V2000
   13.6716   29.8986   35.4773 P   0  0  2  0  0  0  0  0  0  0  0  0
   13.6464   28.4621   35.0778 O   0  0  0  0  0  0  0  0  0  0  0  0
   14.9940   30.3506   36.0091 O   0  0  0  0  0  0  0  0  0  0  0  0
   12.5208   30.2701   36.3553 O   0  0  0  0  0  0  0  0  0  0  0  0
   12.6909   30.4792   32.6768 P   0  0  2  0  0  0  0  0  0  0  0  0
   11.4656   29.6810   32.9390 O   0  0  0  0  0  0  0  0  0  0  0  0
   13.6746   29.9496   31.7340 O   0  0  0  0  0  0  0  0  0  0  0  0
   13.4507   30.7627   34.0741 O   0  0  0  0  0  0  0  0  0  0  0  0
   11.1736   32.4671   31.0516 P   0  0  1  0  0  0  0  0  0  0  0  0
   11.9139   33.2925   30.0624 O   0  0  0  0  0  0  0  0  0  0  0  0
   10.3373   31.3472   30.5567 O   0  0  0  0  0  0  0  0  0  0  0  0
   12.2191   31.9336   32.1620 O   0  0  0  0  0  0  0  0  0  0  0  0
   10.2426   33.4178   31.9463 O   0  0  0  0  0  0  0  0  0  0  0  0
   10.7900   34.5744   32.5823 C   0  0  0  0  0  0  0  0  0  0  0  0
    9.6591   35.5188   32.9181 C   0  0  1  0  0  0  0  0  0  0  0  0
    9.7138   35.8656   34.3396 O   0  0  0  0  0  0  0  0  0  0  0  0
    9.7826   36.8057   32.1299 C   0  0  1  0  0  0  0  0  0  0  0  0
    8.5248   37.1235   31.4712 O   0  0  0  0  0  0  0  0  0  0  0  0
   10.1280   37.8570   33.1426 C   0  0  1  0  0  0  0  0  0  0  0  0
    9.5331   39.1189   32.8155 O   0  0  0  0  0  0  0  0  0  0  0  0
    9.6066   37.3094   34.4397 C   0  0  2  0  0  0  0  0  0  0  0  0
   10.3198   37.8381   35.6230 N   0  0  0  0  0  0  0  0  0  0  0  0
   11.6050   37.5447   36.0463 C   0  0  0  0  0  0  0  0  0  0  0  0
   11.8706   38.2806   37.1556 N   0  0  0  0  0  0  0  0  0  0  0  0
   10.7723   38.9661   37.3552 C   0  0  0  0  0  0  0  0  0  0  0  0
   10.6427   39.8562   38.4006 C   0  0  0  0  0  0  0  0  0  0  0  0
   11.6294   40.0699   39.2658 N   0  0  0  0  0  0  0  0  0  0  0  0
    9.4480   40.5174   38.5033 N   0  0  0  0  0  0  0  0  0  0  0  0
    8.4397   40.2862   37.5936 C   0  0  0  0  0  0  0  0  0  0  0  0
    8.6157   39.3927   36.5685 N   0  0  0  0  0  0  0  0  0  0  0  0
    9.8139   38.7254   36.4569 C   0  0  0  0  0  0  0  0  0  0  0  0
   15.6059   29.6109   36.0130 H   0  0  0  0  0  0  0  0  0  0  0  0
   12.8176   30.3176   37.2670 H   0  0  0  0  0  0  0  0  0  0  0  0
   10.7056   30.2663   32.9762 H   0  0  0  0  0  0  0  0  0  0  0  0
   11.5818   34.1930   30.0862 H   0  0  0  0  0  0  0  0  0  0  0  0
   11.4983   35.0653   31.9149 H   0  0  0  0  0  0  0  0  0  0  0  0
   11.3149   34.2847   33.4925 H   0  0  0  0  0  0  0  0  0  0  0  0
    8.7220   35.0197   32.6717 H   0  0  0  0  0  0  0  0  0  0  0  0
   10.5372   36.7326   31.3467 H   0  0  0  0  0  0  0  0  0  0  0  0
    8.4426   38.0759   31.3835 H   0  0  0  0  0  0  0  0  0  0  0  0
   11.1988   38.0563   33.1853 H   0  0  0  0  0  0  0  0  0  0  0  0
    9.7191   39.7499   33.5146 H   0  0  0  0  0  0  0  0  0  0  0  0
    8.5733   37.6213   34.5918 H   0  0  0  0  0  0  0  0  0  0  0  0
   12.2880   36.8416   35.5695 H   0  0  0  0  0  0  0  0  0  0  0  0
   12.4777   40.5493   38.9638 H   0  0  0  0  0  0  0  0  0  0  0  0
   11.5382   39.7545   40.2315 H   0  0  0  0  0  0  0  0  0  0  0  0
    7.4934   40.8185   37.6894 H   0  0  0  0  0  0  0  0  0  0  0  0
  1  2  2  0
  1  3  1  1
  1  4  1  0
  8  1  1  0
  5  6  1  1
  5  7  2  0
  5  8  1  0
 12  5  1  0
  9 10  1  6
  9 11  2  0
  9 12  1  0
  9 13  1  0
 13 14  1  0
 14 15  1  0
 15 16  1  0
 15 17  1  0
 16 21  1  0
 17 18  1  0
 17 19  1  0
 19 20  1  0
 19 21  1  0
 21 22  1  0
 22 23  1  0
 22 31  1  0
 23 24  2  0
 24 25  1  0
 25 26  1  0
 25 31  2  0
 26 27  1  0
 26 28  2  0
 28 29  1  0
 29 30  2  0
 30 31  1  0
  3 32  1  0
  4 33  1  0
  6 34  1  0
 10 35  1  0
 14 36  1  0
 14 37  1  0
 15 38  1  1
 17 39  1  6
 18 40  1  0
 19 41  1  1
 20 42  1  0
 21 43  1  1
 23 44  1  0
 27 45  1  0
 27 46  1  0
 29 47  1  0
M  END
