7upj_ligand
     RDKit          3D

 63 67  0  0  0  0  0  0  0  0999 V2000
   12.4831   24.0221    7.0836 C   0  0  0  0  0  0  0  0  0  0  0  0
   13.3900   24.3551    8.1370 C   0  0  0  0  0  0  0  0  0  0  0  0
   13.1306   25.2456    8.8793 O   0  0  0  0  0  0  0  0  0  0  0  0
   14.5769   23.7393    8.3155 O   0  0  0  0  0  0  0  0  0  0  0  0
   14.8771   22.7359    7.3705 C   0  0  0  0  0  0  0  0  0  0  0  0
   14.0478   22.3597    6.3033 C   0  0  0  0  0  0  0  0  0  0  0  0
   12.8284   23.0205    6.1651 C   0  0  0  0  0  0  0  0  0  0  0  0
   12.0078   22.6656    5.1306 O   0  0  0  0  0  0  0  0  0  0  0  0
   11.2777   25.8220    5.8316 C   0  0  0  0  0  0  0  0  0  0  0  0
   12.4060   25.8432    4.9727 C   0  0  0  0  0  0  0  0  0  0  0  0
   12.4615   26.7795    3.9247 C   0  0  0  0  0  0  0  0  0  0  0  0
   11.4318   27.6995    3.6971 C   0  0  0  0  0  0  0  0  0  0  0  0
   10.2886   27.6920    4.5408 C   0  0  0  0  0  0  0  0  0  0  0  0
   10.2258   26.7521    5.6119 C   0  0  0  0  0  0  0  0  0  0  0  0
   11.1762   24.7753    6.9114 C   0  0  2  0  0  0  0  0  0  0  0  0
   10.5566   25.2465    8.2449 C   0  0  2  0  0  0  0  0  0  0  0  0
    9.3510   24.4923    8.7825 C   0  0  0  0  0  0  0  0  0  0  0  0
    9.2037   25.9297    8.2920 C   0  0  0  0  0  0  0  0  0  0  0  0
   16.2384   22.1076    7.6262 C   0  0  0  0  0  0  0  0  0  0  0  0
   17.3919   22.8100    6.9427 C   0  0  0  0  0  0  0  0  0  0  0  0
   17.1427   23.1971    5.4940 C   0  0  0  0  0  0  0  0  0  0  0  0
   16.9046   22.0192    4.5217 C   0  0  0  0  0  0  0  0  0  0  0  0
   15.4346   21.7244    4.1433 C   0  0  0  0  0  0  0  0  0  0  0  0
   14.4678   21.2868    5.3180 C   0  0  0  0  0  0  0  0  0  0  0  0
    9.1861   28.5550    4.2343 N   0  0  0  0  0  0  0  0  0  0  0  0
    7.7016   28.1102    4.8474 S   0  0  1  0  0  0  0  0  0  0  0  0
    7.2459   29.3027    5.5288 O   0  0  0  0  0  0  0  0  0  0  0  0
    6.9137   27.6792    3.7273 O   0  0  0  0  0  0  0  0  0  0  0  0
    8.0595   26.8596    6.0066 C   0  0  0  0  0  0  0  0  0  0  0  0
    8.0332   27.1921    7.3922 C   0  0  0  0  0  0  0  0  0  0  0  0
    8.3363   26.2179    8.3384 C   0  0  0  0  0  0  0  0  0  0  0  0
    8.6670   24.9079    7.9306 C   0  0  0  0  0  0  0  0  0  0  0  0
    8.6999   24.5714    6.5609 C   0  0  0  0  0  0  0  0  0  0  0  0
    8.3999   25.5376    5.5913 C   0  0  0  0  0  0  0  0  0  0  0  0
   12.4921   22.1097    4.5158 H   0  0  0  0  0  0  0  0  0  0  0  0
   13.2241   25.1390    5.1237 H   0  0  0  0  0  0  0  0  0  0  0  0
   13.3330   26.7888    3.2700 H   0  0  0  0  0  0  0  0  0  0  0  0
   11.5063   28.4162    2.8792 H   0  0  0  0  0  0  0  0  0  0  0  0
    9.3582   26.7471    6.2718 H   0  0  0  0  0  0  0  0  0  0  0  0
   10.4343   24.0663    6.5443 H   0  0  0  0  0  0  0  0  0  0  0  0
   11.5460   25.5167    8.6140 H   0  0  0  0  0  0  0  0  0  0  0  0
    9.0806   23.8901    9.6500 H   0  0  0  0  0  0  0  0  0  0  0  0
    8.8624   23.5269    8.6509 H   0  0  0  0  0  0  0  0  0  0  0  0
    8.5553   26.5063    7.6323 H   0  0  0  0  0  0  0  0  0  0  0  0
    8.7744   26.8710    8.6352 H   0  0  0  0  0  0  0  0  0  0  0  0
   16.2015   21.0934    7.2286 H   0  0  0  0  0  0  0  0  0  0  0  0
   16.4202   22.1658    8.6994 H   0  0  0  0  0  0  0  0  0  0  0  0
   17.5644   23.7366    7.4902 H   0  0  0  0  0  0  0  0  0  0  0  0
   18.2288   22.1117    6.9418 H   0  0  0  0  0  0  0  0  0  0  0  0
   16.2318   23.7957    5.4851 H   0  0  0  0  0  0  0  0  0  0  0  0
   18.0428   23.7065    5.1498 H   0  0  0  0  0  0  0  0  0  0  0  0
   17.4077   22.2879    3.5927 H   0  0  0  0  0  0  0  0  0  0  0  0
   17.2699   21.1278    5.0316 H   0  0  0  0  0  0  0  0  0  0  0  0
   15.0316   22.6609    3.7578 H   0  0  0  0  0  0  0  0  0  0  0  0
   15.4669   20.8812    3.4532 H   0  0  0  0  0  0  0  0  0  0  0  0
   13.5496   20.9503    4.8366 H   0  0  0  0  0  0  0  0  0  0  0  0
   15.0224   20.5505    5.8998 H   0  0  0  0  0  0  0  0  0  0  0  0
    9.3039   29.3970    3.6707 H   0  0  0  0  0  0  0  0  0  0  0  0
    7.7772   28.2032    7.7088 H   0  0  0  0  0  0  0  0  0  0  0  0
    8.3182   26.4677    9.3993 H   0  0  0  0  0  0  0  0  0  0  0  0
    8.8987   24.1505    8.6794 H   0  0  0  0  0  0  0  0  0  0  0  0
    8.9592   23.5576    6.2561 H   0  0  0  0  0  0  0  0  0  0  0  0
    8.4263   25.2822    4.5321 H   0  0  0  0  0  0  0  0  0  0  0  0
  1 15  1  0
  1  7  2  0
  1  2  1  0
  2  4  1  0
  2  3  2  0
  4  5  1  0
  5 19  1  0
  5  6  2  0
  6 24  1  0
  6  7  1  0
  7  8  1  0
 24 23  1  0
 23 22  1  0
 22 21  1  0
 21 20  1  0
 20 19  1  0
 15 16  1  0
 15  9  1  0
  9 14  1  0
  9 10  2  0
 10 11  1  0
 11 12  2  0
 12 13  1  0
 13 25  1  0
 13 14  2  0
 26 25  1  6
 26 29  1  0
 26 28  2  0
 26 27  2  0
 29 34  1  0
 29 30  2  0
 30 31  1  0
 31 32  2  0
 32 33  1  0
 33 34  2  0
 16 18  1  0
 16 17  1  0
 17 18  1  0
  8 35  1  0
 10 36  1  0
 11 37  1  0
 12 38  1  0
 14 39  1  0
 15 40  1  6
 16 41  1  1
 17 42  1  0
 17 43  1  0
 18 44  1  0
 18 45  1  0
 19 46  1  0
 19 47  1  0
 20 48  1  0
 20 49  1  0
 21 50  1  0
 21 51  1  0
 22 52  1  0
 22 53  1  0
 23 54  1  0
 23 55  1  0
 24 56  1  0
 24 57  1  0
 25 58  1  0
 30 59  1  0
 31 60  1  0
 32 61  1  0
 33 62  1  0
 34 63  1  0
M  END
